Circuit: * C:\Users\vanpe\Desktop\035_ltspice_lib\BTL ICTT.asc

Warning: Pd = 0 is less than W.
Warning: Ps = 0 is less than W.
Warning: Pd = 0 is less than W.
Warning: Ps = 0 is less than W.
Warning: Pd = 0 is less than W.
Warning: Ps = 0 is less than W.
Direct Newton iteration for .op point succeeded.

Date: Sat Aug 12 16:10:03 2023
Total elapsed time: 0.175 seconds.

tnom = 27
temp = 27
method = modified trap
totiter = 3101
traniter = 3094
tranpoints = 1274
accept = 1190
rejected = 84
matrix size = 11
fillins = 2
solver = Normal
Matrix Compiler1: 654 bytes object code size  0.4/0.2/[0.2]
Matrix Compiler2: off  [0.2]/0.3/0.2

